/*--------------------------------*- C++ -*----------------------------------*\
| =========                 |                                                 |
| \\      /  F ield         | OpenFOAM: The Open Source CFD Toolbox           |
|  \\    /   O peration     | Version:  5                                     |
|   \\  /    A nd           | Web:      www.OpenFOAM.org                      |
|    \\/     M anipulation  |                                                 |
\*---------------------------------------------------------------------------*/
FoamFile
{
    version     2.0;
    format      ascii;
    class       volScalarField;
    location    "0";
    object      epsilon;
}
// * * * * * * * * * * * * * * * * * * * * * * * * * * * * * * * * * * * * * //

dimensions      [0 2 -3 0 0 0 0];

internalField   uniform 1;

boundaryField
{
    //- Set patchGroups for constraint patches
    #includeEtc "caseDicts/setConstraintTypes"

    inlet
    {
        type            zeroGradient;
    }
    outlet
    {
        type            inletOutlet;
        inletValue      $internalField;
        value           $internalField;
    }

    lowerWall
    {
        type            epsilonWallFunction;
	value 		$internalField;
    }

    body
    {
        type            epsilonWallFunction;
        value           $internalField;
    }


    wing
    {
        type            epsilonWallFunction;
        value           $internalField;
    }

    FrWheel
    {
        type            epsilonWallFunction;
        value           $internalField;
    }

    RrWheel
    {
        type            epsilonWallFunction;
        value           $internalField;
    }

    #include "include/frontBackUpperPatches"
}


// ************************************************************************* //
