/*--------------------------------*- C++ -*----------------------------------*\
| =========                 |                                                 |
| \\      /  F ield         | OpenFOAM: The Open Source CFD Toolbox           |
|  \\    /   O peration     | Version:  4.1                                   |
|   \\  /    A nd           | Web:      www.OpenFOAM.org                      |
|    \\/     M anipulation  |                                                 |
\*---------------------------------------------------------------------------*/
FoamFile
{
    version     2.0;
    format      ascii;
    class       volVectorField;
    location    "0";
    object      U;
}
// * * * * * * * * * * * * * * * * * * * * * * * * * * * * * * * * * * * * * //

#include        "include/initialConditions"

dimensions      [0 1 -1 0 0 0 0];

internalField   uniform $flowVelocity;

boundaryField
{
    //- Set patchGroups for constraint patches
    #includeEtc "caseDicts/setConstraintTypes"

    #include "include/fixedInlet"

    outlet
    {
        type            inletOutlet;
        inletValue      uniform (1 0 0);
        value           $internalField;
    }

    lowerWall
    {
        type            fixedValue;
        value           $internalField;
    }

    body
    {
        type            noSlip;
    }

    wing
    {
        type            noSlip;
    }

    FrWheel
    {
        type            rotatingWallVelocity;
	origin		(0 -.966 .303);
	axis		(0 -1 0);
	omega		150.5;
    }

    RrWheel
    {
        type            rotatingWallVelocity;
	origin		(2.7775 -.983 .355);
	axis		(0 -1 0);
	omega		138.5;
    }

    #include "include/frontBackUpperPatches"
}


// ************************************************************************* //
